 INFO
nunit      1    1    1
unit   cell
celltype   primcell
shape   parapipedal
 END_INFO
 DIM-GROUP
           3           9
 PRIMVEC
    2.4670000000    0.0000000000    0.0000000000
   -1.2335000000    2.1364846710    0.0000000000
    0.0000000000    0.0000000000   15.0000000000
 CONVVEC
    2.4670000000    0.0000000000    0.0000000000
   -1.2335000000    2.1364846710    0.0000000000
    0.0000000000    0.0000000000   15.0000000000
 PRIMCOORD
           2           1
  6     -0.0000012330     1.4243238260     7.5000000000
  6      1.2335012330     0.7121608450     7.5000000000
 CONVCOORD
           2           1
  6     -0.0000012330     1.4243238260     7.5000000000
  6      1.2335012330     0.7121608450     7.5000000000
 RECIP-PRIMVEC
    0.4053506283    0.2340292944   -0.0000000000

    0.0000000000    0.4680585888    0.0000000000

    0.0000000000   -0.0000000000    0.0666666667

 RECIP-CONVVEC
    0.4053506283    0.2340292944   -0.0000000000

    0.0000000000    0.4680585888    0.0000000000

    0.0000000000   -0.0000000000    0.0666666667

 WIGNER-SEITZ-PRIMCELL
           4
 -0.1233500E+01 -0.7121616E+00 -0.7500000E+01  -0.5000000E+00 -0.8660254E+00  0.6834947E-16
  0.1797463E-15 -0.1424323E+01 -0.7500000E+01  -0.5000000E+00 -0.8660254E+00  0.6834947E-16
  0.0000000E+00 -0.1424323E+01  0.7500000E+01  -0.5000000E+00 -0.8660254E+00  0.6834947E-16
 -0.1233500E+01 -0.7121616E+00  0.7500000E+01  -0.5000000E+00 -0.8660254E+00  0.6834947E-16
           4
 -0.1233500E+01  0.7121616E+00  0.7500000E+01  -0.1000000E+01  0.0000000E+00  0.0000000E+00
 -0.1233500E+01  0.7121616E+00 -0.7500000E+01  -0.1000000E+01  0.0000000E+00  0.0000000E+00
 -0.1233500E+01 -0.7121616E+00 -0.7500000E+01  -0.1000000E+01  0.0000000E+00  0.0000000E+00
 -0.1233500E+01 -0.7121616E+00  0.7500000E+01  -0.1000000E+01  0.0000000E+00  0.0000000E+00
           4
  0.1797463E-15 -0.1424323E+01 -0.7500000E+01   0.5000000E+00 -0.8660254E+00 -0.0000000E+00
  0.1233500E+01 -0.7121616E+00 -0.7500000E+01   0.5000000E+00 -0.8660254E+00 -0.0000000E+00
  0.1233500E+01 -0.7121616E+00  0.7500000E+01   0.5000000E+00 -0.8660254E+00 -0.0000000E+00
  0.5751882E-14 -0.1424323E+01  0.7500000E+01   0.5000000E+00 -0.8660254E+00 -0.0000000E+00
           6
 -0.1233500E+01 -0.7121616E+00 -0.7500000E+01  -0.1011073E-14  0.0000000E+00 -0.1000000E+01
 -0.1233500E+01  0.7121616E+00 -0.7500000E+01  -0.1011073E-14  0.0000000E+00 -0.1000000E+01
  0.1797463E-15  0.1424323E+01 -0.7500000E+01  -0.1011073E-14  0.0000000E+00 -0.1000000E+01
  0.1233500E+01  0.7121616E+00 -0.7500000E+01  -0.1011073E-14  0.0000000E+00 -0.1000000E+01
  0.1233500E+01 -0.7121616E+00 -0.7500000E+01  -0.1011073E-14  0.0000000E+00 -0.1000000E+01
  0.1797463E-15 -0.1424323E+01 -0.7500000E+01  -0.1011073E-14  0.0000000E+00 -0.1000000E+01
           6
  0.5751882E-14 -0.1424323E+01  0.7500000E+01  -0.0000000E+00 -0.0000000E+00  0.1000000E+01
  0.1233500E+01 -0.7121616E+00  0.7500000E+01  -0.0000000E+00 -0.0000000E+00  0.1000000E+01
  0.1233500E+01  0.7121616E+00  0.7500000E+01  -0.0000000E+00 -0.0000000E+00  0.1000000E+01
  0.5751882E-14  0.1424323E+01  0.7500000E+01  -0.0000000E+00 -0.0000000E+00  0.1000000E+01
 -0.1233500E+01  0.7121616E+00  0.7500000E+01  -0.0000000E+00 -0.0000000E+00  0.1000000E+01
 -0.1233500E+01 -0.7121616E+00  0.7500000E+01  -0.0000000E+00 -0.0000000E+00  0.1000000E+01
           4
 -0.1233500E+01  0.7121616E+00  0.7500000E+01  -0.5000000E+00  0.8660254E+00  0.8802889E-17
  0.1797463E-15  0.1424323E+01  0.7500000E+01  -0.5000000E+00  0.8660254E+00  0.8802889E-17
 -0.1797463E-15  0.1424323E+01 -0.7500000E+01  -0.5000000E+00  0.8660254E+00  0.8802889E-17
 -0.1233500E+01  0.7121616E+00 -0.7500000E+01  -0.5000000E+00  0.8660254E+00  0.8802889E-17
           4
  0.1233500E+01 -0.7121616E+00  0.7500000E+01   0.1000000E+01 -0.0000000E+00 -0.0000000E+00
  0.1233500E+01 -0.7121616E+00 -0.7500000E+01   0.1000000E+01 -0.0000000E+00 -0.0000000E+00
  0.1233500E+01  0.7121616E+00 -0.7500000E+01   0.1000000E+01 -0.0000000E+00 -0.0000000E+00
  0.1233500E+01  0.7121616E+00  0.7500000E+01   0.1000000E+01 -0.0000000E+00 -0.0000000E+00
           4
  0.5751882E-14  0.1424323E+01  0.7500000E+01   0.5000000E+00  0.8660254E+00  0.4877116E-15
  0.1233500E+01  0.7121616E+00  0.7500000E+01   0.5000000E+00  0.8660254E+00  0.4877116E-15
  0.1233500E+01  0.7121616E+00 -0.7500000E+01   0.5000000E+00  0.8660254E+00  0.4877116E-15
 -0.1797463E-15  0.1424323E+01 -0.7500000E+01   0.5000000E+00  0.8660254E+00  0.4877116E-15
 WIGNER-SEITZ-PRIMCELL_END
 WIGNER-SEITZ-CONVCELL
           4
 -0.1233500E+01 -0.7121616E+00 -0.7500000E+01  -0.5000000E+00 -0.8660254E+00  0.6834947E-16
  0.1797463E-15 -0.1424323E+01 -0.7500000E+01  -0.5000000E+00 -0.8660254E+00  0.6834947E-16
  0.0000000E+00 -0.1424323E+01  0.7500000E+01  -0.5000000E+00 -0.8660254E+00  0.6834947E-16
 -0.1233500E+01 -0.7121616E+00  0.7500000E+01  -0.5000000E+00 -0.8660254E+00  0.6834947E-16
           4
 -0.1233500E+01  0.7121616E+00  0.7500000E+01  -0.1000000E+01  0.0000000E+00  0.0000000E+00
 -0.1233500E+01  0.7121616E+00 -0.7500000E+01  -0.1000000E+01  0.0000000E+00  0.0000000E+00
 -0.1233500E+01 -0.7121616E+00 -0.7500000E+01  -0.1000000E+01  0.0000000E+00  0.0000000E+00
 -0.1233500E+01 -0.7121616E+00  0.7500000E+01  -0.1000000E+01  0.0000000E+00  0.0000000E+00
           4
  0.1797463E-15 -0.1424323E+01 -0.7500000E+01   0.5000000E+00 -0.8660254E+00 -0.0000000E+00
  0.1233500E+01 -0.7121616E+00 -0.7500000E+01   0.5000000E+00 -0.8660254E+00 -0.0000000E+00
  0.1233500E+01 -0.7121616E+00  0.7500000E+01   0.5000000E+00 -0.8660254E+00 -0.0000000E+00
  0.5751882E-14 -0.1424323E+01  0.7500000E+01   0.5000000E+00 -0.8660254E+00 -0.0000000E+00
           6
 -0.1233500E+01 -0.7121616E+00 -0.7500000E+01  -0.1011073E-14  0.0000000E+00 -0.1000000E+01
 -0.1233500E+01  0.7121616E+00 -0.7500000E+01  -0.1011073E-14  0.0000000E+00 -0.1000000E+01
  0.1797463E-15  0.1424323E+01 -0.7500000E+01  -0.1011073E-14  0.0000000E+00 -0.1000000E+01
  0.1233500E+01  0.7121616E+00 -0.7500000E+01  -0.1011073E-14  0.0000000E+00 -0.1000000E+01
  0.1233500E+01 -0.7121616E+00 -0.7500000E+01  -0.1011073E-14  0.0000000E+00 -0.1000000E+01
  0.1797463E-15 -0.1424323E+01 -0.7500000E+01  -0.1011073E-14  0.0000000E+00 -0.1000000E+01
           6
  0.5751882E-14 -0.1424323E+01  0.7500000E+01  -0.0000000E+00 -0.0000000E+00  0.1000000E+01
  0.1233500E+01 -0.7121616E+00  0.7500000E+01  -0.0000000E+00 -0.0000000E+00  0.1000000E+01
  0.1233500E+01  0.7121616E+00  0.7500000E+01  -0.0000000E+00 -0.0000000E+00  0.1000000E+01
  0.5751882E-14  0.1424323E+01  0.7500000E+01  -0.0000000E+00 -0.0000000E+00  0.1000000E+01
 -0.1233500E+01  0.7121616E+00  0.7500000E+01  -0.0000000E+00 -0.0000000E+00  0.1000000E+01
 -0.1233500E+01 -0.7121616E+00  0.7500000E+01  -0.0000000E+00 -0.0000000E+00  0.1000000E+01
           4
 -0.1233500E+01  0.7121616E+00  0.7500000E+01  -0.5000000E+00  0.8660254E+00  0.8802889E-17
  0.1797463E-15  0.1424323E+01  0.7500000E+01  -0.5000000E+00  0.8660254E+00  0.8802889E-17
 -0.1797463E-15  0.1424323E+01 -0.7500000E+01  -0.5000000E+00  0.8660254E+00  0.8802889E-17
 -0.1233500E+01  0.7121616E+00 -0.7500000E+01  -0.5000000E+00  0.8660254E+00  0.8802889E-17
           4
  0.1233500E+01 -0.7121616E+00  0.7500000E+01   0.1000000E+01 -0.0000000E+00 -0.0000000E+00
  0.1233500E+01 -0.7121616E+00 -0.7500000E+01   0.1000000E+01 -0.0000000E+00 -0.0000000E+00
  0.1233500E+01  0.7121616E+00 -0.7500000E+01   0.1000000E+01 -0.0000000E+00 -0.0000000E+00
  0.1233500E+01  0.7121616E+00  0.7500000E+01   0.1000000E+01 -0.0000000E+00 -0.0000000E+00
           4
  0.5751882E-14  0.1424323E+01  0.7500000E+01   0.5000000E+00  0.8660254E+00  0.4877116E-15
  0.1233500E+01  0.7121616E+00  0.7500000E+01   0.5000000E+00  0.8660254E+00  0.4877116E-15
  0.1233500E+01  0.7121616E+00 -0.7500000E+01   0.5000000E+00  0.8660254E+00  0.4877116E-15
 -0.1797463E-15  0.1424323E+01 -0.7500000E+01   0.5000000E+00  0.8660254E+00  0.4877116E-15
 WIGNER-SEITZ-CONVCELL_END
 BRILLOUIN-ZONE-PRIMCELL
           4
 -0.2702338E+00  0.3428708E-16  0.3333333E-01  -0.8660254E+00 -0.5000000E+00  0.2571531E-15
 -0.2702338E+00  0.0000000E+00 -0.3333333E-01  -0.8660254E+00 -0.5000000E+00  0.2571531E-15
 -0.1351169E+00 -0.2340293E+00 -0.3333333E-01  -0.8660254E+00 -0.5000000E+00  0.2571531E-15
 -0.1351169E+00 -0.2340293E+00  0.3333333E-01  -0.8660254E+00 -0.5000000E+00  0.2571531E-15
           4
 -0.2702338E+00 -0.0000000E+00  0.3333333E-01  -0.8660254E+00  0.5000000E+00 -0.3851607E-15
 -0.1351169E+00  0.2340293E+00  0.3333333E-01  -0.8660254E+00  0.5000000E+00 -0.3851607E-15
 -0.1351169E+00  0.2340293E+00 -0.3333333E-01  -0.8660254E+00  0.5000000E+00 -0.3851607E-15
 -0.2702338E+00  0.0000000E+00 -0.3333333E-01  -0.8660254E+00  0.5000000E+00 -0.3851607E-15
           4
 -0.1351169E+00 -0.2340293E+00 -0.3333333E-01  -0.0000000E+00 -0.1000000E+01  0.3605555E-15
  0.1351169E+00 -0.2340293E+00 -0.3333333E-01  -0.0000000E+00 -0.1000000E+01  0.3605555E-15
  0.1351169E+00 -0.2340293E+00  0.3333333E-01  -0.0000000E+00 -0.1000000E+01  0.3605555E-15
 -0.1351169E+00 -0.2340293E+00  0.3333333E-01  -0.0000000E+00 -0.1000000E+01  0.3605555E-15
           6
 -0.2702338E+00  0.0000000E+00 -0.3333333E-01   0.0000000E+00  0.1371483E-16 -0.1000000E+01
 -0.1351169E+00  0.2340293E+00 -0.3333333E-01   0.0000000E+00  0.1371483E-16 -0.1000000E+01
  0.1351169E+00  0.2340293E+00 -0.3333333E-01   0.0000000E+00  0.1371483E-16 -0.1000000E+01
  0.2702338E+00 -0.0000000E+00 -0.3333333E-01   0.0000000E+00  0.1371483E-16 -0.1000000E+01
  0.1351169E+00 -0.2340293E+00 -0.3333333E-01   0.0000000E+00  0.1371483E-16 -0.1000000E+01
 -0.1351169E+00 -0.2340293E+00 -0.3333333E-01   0.0000000E+00  0.1371483E-16 -0.1000000E+01
           6
 -0.1351169E+00 -0.2340293E+00  0.3333333E-01  -0.0000000E+00  0.2742966E-16  0.1000000E+01
  0.1351169E+00 -0.2340293E+00  0.3333333E-01  -0.0000000E+00  0.2742966E-16  0.1000000E+01
  0.2702338E+00  0.3428708E-16  0.3333333E-01  -0.0000000E+00  0.2742966E-16  0.1000000E+01
  0.1351169E+00  0.2340293E+00  0.3333333E-01  -0.0000000E+00  0.2742966E-16  0.1000000E+01
 -0.1351169E+00  0.2340293E+00  0.3333333E-01  -0.0000000E+00  0.2742966E-16  0.1000000E+01
 -0.2702338E+00  0.3428708E-16  0.3333333E-01  -0.0000000E+00  0.2742966E-16  0.1000000E+01
           4
 -0.1351169E+00  0.2340293E+00  0.3333333E-01   0.0000000E+00  0.1000000E+01 -0.4097658E-15
  0.1351169E+00  0.2340293E+00  0.3333333E-01   0.0000000E+00  0.1000000E+01 -0.4097658E-15
  0.1351169E+00  0.2340293E+00 -0.3333333E-01   0.0000000E+00  0.1000000E+01 -0.4097658E-15
 -0.1351169E+00  0.2340293E+00 -0.3333333E-01   0.0000000E+00  0.1000000E+01 -0.4097658E-15
           4
  0.1351169E+00 -0.2340293E+00 -0.3333333E-01   0.8660254E+00 -0.5000000E+00 -0.0000000E+00
  0.2702338E+00  0.0000000E+00 -0.3333333E-01   0.8660254E+00 -0.5000000E+00 -0.0000000E+00
  0.2702338E+00  0.0000000E+00  0.3333333E-01   0.8660254E+00 -0.5000000E+00 -0.0000000E+00
  0.1351169E+00 -0.2340293E+00  0.3333333E-01   0.8660254E+00 -0.5000000E+00 -0.0000000E+00
           4
  0.1351169E+00  0.2340293E+00  0.3333333E-01   0.8660254E+00  0.5000000E+00 -0.2571531E-15
  0.2702338E+00  0.3428708E-16  0.3333333E-01   0.8660254E+00  0.5000000E+00 -0.2571531E-15
  0.2702338E+00  0.0000000E+00 -0.3333333E-01   0.8660254E+00  0.5000000E+00 -0.2571531E-15
  0.1351169E+00  0.2340293E+00 -0.3333333E-01   0.8660254E+00  0.5000000E+00 -0.2571531E-15
 BRILLOUIN-ZONE-PRIMCELL_END
 BRILLOUIN-ZONE-CONVCELL
           4
 -0.2702338E+00  0.3428708E-16  0.3333333E-01  -0.8660254E+00 -0.5000000E+00  0.2571531E-15
 -0.2702338E+00  0.0000000E+00 -0.3333333E-01  -0.8660254E+00 -0.5000000E+00  0.2571531E-15
 -0.1351169E+00 -0.2340293E+00 -0.3333333E-01  -0.8660254E+00 -0.5000000E+00  0.2571531E-15
 -0.1351169E+00 -0.2340293E+00  0.3333333E-01  -0.8660254E+00 -0.5000000E+00  0.2571531E-15
           4
 -0.2702338E+00 -0.0000000E+00  0.3333333E-01  -0.8660254E+00  0.5000000E+00 -0.3851607E-15
 -0.1351169E+00  0.2340293E+00  0.3333333E-01  -0.8660254E+00  0.5000000E+00 -0.3851607E-15
 -0.1351169E+00  0.2340293E+00 -0.3333333E-01  -0.8660254E+00  0.5000000E+00 -0.3851607E-15
 -0.2702338E+00  0.0000000E+00 -0.3333333E-01  -0.8660254E+00  0.5000000E+00 -0.3851607E-15
           4
 -0.1351169E+00 -0.2340293E+00 -0.3333333E-01  -0.0000000E+00 -0.1000000E+01  0.3605555E-15
  0.1351169E+00 -0.2340293E+00 -0.3333333E-01  -0.0000000E+00 -0.1000000E+01  0.3605555E-15
  0.1351169E+00 -0.2340293E+00  0.3333333E-01  -0.0000000E+00 -0.1000000E+01  0.3605555E-15
 -0.1351169E+00 -0.2340293E+00  0.3333333E-01  -0.0000000E+00 -0.1000000E+01  0.3605555E-15
           6
 -0.2702338E+00  0.0000000E+00 -0.3333333E-01   0.0000000E+00  0.1371483E-16 -0.1000000E+01
 -0.1351169E+00  0.2340293E+00 -0.3333333E-01   0.0000000E+00  0.1371483E-16 -0.1000000E+01
  0.1351169E+00  0.2340293E+00 -0.3333333E-01   0.0000000E+00  0.1371483E-16 -0.1000000E+01
  0.2702338E+00 -0.0000000E+00 -0.3333333E-01   0.0000000E+00  0.1371483E-16 -0.1000000E+01
  0.1351169E+00 -0.2340293E+00 -0.3333333E-01   0.0000000E+00  0.1371483E-16 -0.1000000E+01
 -0.1351169E+00 -0.2340293E+00 -0.3333333E-01   0.0000000E+00  0.1371483E-16 -0.1000000E+01
           6
 -0.1351169E+00 -0.2340293E+00  0.3333333E-01  -0.0000000E+00  0.2742966E-16  0.1000000E+01
  0.1351169E+00 -0.2340293E+00  0.3333333E-01  -0.0000000E+00  0.2742966E-16  0.1000000E+01
  0.2702338E+00  0.3428708E-16  0.3333333E-01  -0.0000000E+00  0.2742966E-16  0.1000000E+01
  0.1351169E+00  0.2340293E+00  0.3333333E-01  -0.0000000E+00  0.2742966E-16  0.1000000E+01
 -0.1351169E+00  0.2340293E+00  0.3333333E-01  -0.0000000E+00  0.2742966E-16  0.1000000E+01
 -0.2702338E+00  0.3428708E-16  0.3333333E-01  -0.0000000E+00  0.2742966E-16  0.1000000E+01
           4
 -0.1351169E+00  0.2340293E+00  0.3333333E-01   0.0000000E+00  0.1000000E+01 -0.4097658E-15
  0.1351169E+00  0.2340293E+00  0.3333333E-01   0.0000000E+00  0.1000000E+01 -0.4097658E-15
  0.1351169E+00  0.2340293E+00 -0.3333333E-01   0.0000000E+00  0.1000000E+01 -0.4097658E-15
 -0.1351169E+00  0.2340293E+00 -0.3333333E-01   0.0000000E+00  0.1000000E+01 -0.4097658E-15
           4
  0.1351169E+00 -0.2340293E+00 -0.3333333E-01   0.8660254E+00 -0.5000000E+00 -0.0000000E+00
  0.2702338E+00  0.0000000E+00 -0.3333333E-01   0.8660254E+00 -0.5000000E+00 -0.0000000E+00
  0.2702338E+00  0.0000000E+00  0.3333333E-01   0.8660254E+00 -0.5000000E+00 -0.0000000E+00
  0.1351169E+00 -0.2340293E+00  0.3333333E-01   0.8660254E+00 -0.5000000E+00 -0.0000000E+00
           4
  0.1351169E+00  0.2340293E+00  0.3333333E-01   0.8660254E+00  0.5000000E+00 -0.2571531E-15
  0.2702338E+00  0.3428708E-16  0.3333333E-01   0.8660254E+00  0.5000000E+00 -0.2571531E-15
  0.2702338E+00  0.0000000E+00 -0.3333333E-01   0.8660254E+00  0.5000000E+00 -0.2571531E-15
  0.1351169E+00  0.2340293E+00 -0.3333333E-01   0.8660254E+00  0.5000000E+00 -0.2571531E-15
 BRILLOUIN-ZONE-CONVCELL_END
 ATOMS
    6   -0.0000012330    1.4243238260    7.5000000000
    6    1.2335012330    0.7121608450    7.5000000000
 FRAMES
1      0.0000000000    0.0000000000    0.0000000000      2.4670000000    0.0000000000    0.0000000000
1      0.0000000000    0.0000000000    0.0000000000     -1.2335000000    2.1364846710    0.0000000000
1      0.0000000000    0.0000000000    0.0000000000      0.0000000000    0.0000000000   15.0000000000
1      0.0000000000    0.0000000000   15.0000000000      2.4670000000    0.0000000000   15.0000000000
1      0.0000000000    0.0000000000   15.0000000000     -1.2335000000    2.1364846710   15.0000000000
1     -1.2335000000    2.1364846710    0.0000000000      1.2335000000    2.1364846710    0.0000000000
1     -1.2335000000    2.1364846710    0.0000000000     -1.2335000000    2.1364846710   15.0000000000
1     -1.2335000000    2.1364846710   15.0000000000      1.2335000000    2.1364846710   15.0000000000
1      2.4670000000    0.0000000000    0.0000000000      1.2335000000    2.1364846710    0.0000000000
1      2.4670000000    0.0000000000    0.0000000000      2.4670000000    0.0000000000   15.0000000000
1      2.4670000000    0.0000000000   15.0000000000      1.2335000000    2.1364846710   15.0000000000
1      1.2335000000    2.1364846710    0.0000000000      1.2335000000    2.1364846710   15.0000000000
